mtd/3phase_linearization/37Bus_copy/ieee37_Losses.Txt

LOSSES REPORT

Power Delivery Element Loss Report

Element                  kW Losses    % of Power   kvar Losses

"Transformer.SUBXF"  75.42374,     2.91     301.697
"Transformer.XFM1"    0.00000,      0.0     0.000319912
"Line.L1"            10.96024,     0.59     9.01613
"Line.L2"             0.25134,     0.14     -0.0161976
"Line.L3"             0.92547,     0.17     0.345939
"Line.L4"             5.93233,     0.53     4.51695
"Line.L5"             0.27718,     0.11     0.0232415
"Line.L6"             4.09099,     0.48     1.8396
"Line.L7"             0.02958,     0.02     -0.0096379
"Line.L8"             0.98494,     0.30     0.255225
"Line.L9"             0.07921,     0.08     -0.0485587
"Line.L10"            0.05939,     0.07     -0.0340804
"Line.L11"            0.01587,     0.04     -0.0554168
"Line.L12"            0.04352,     0.10     -0.1494
"Line.L13"            0.08351,     0.05     -0.00377051
"Line.L14"            1.36115,     0.21     0.572757
"Line.L15"            0.02036,     0.05     -0.0610518
"Line.L16"            0.07129,     0.08     -0.124342
"Line.L17"            1.54181,     0.22     0.666071
"Line.L18"            0.05138,     0.06     -0.0263694
"Line.L19"            0.07321,     0.17     -0.246285
"Line.L20"            0.01330,     0.03     -0.0955388
"Line.L21"            0.05107,     0.06     -0.026261
"Line.L22"            0.97601,     0.22     0.313267
"Line.L23"            0.11506,     0.14     -0.0815518
"Line.L24"            1.05616,     0.52     0.0770588
"Line.L25"            0.01743,     0.04     -0.15046
"Line.L26"            0.12273,     0.06     -0.0173908
"Line.L27"            1.10814,     0.14     0.481102
"Line.L28"            1.78663,     0.32     0.728389
"Line.L29"            1.14367,     0.29     0.37755
"Line.L30"            0.19420,     0.15     -0.0520676
"Line.L31"            0.28747,     0.11     0.0389396
"Line.L32"            0.11967,     0.09     -0.0404898
"Line.L33"            0.05360,     0.04     -0.0280365
"Line.L34"            0.01590,     0.04     -0.0553101
"Line.L35"           28.43176,     1.14     22.3894
"Transformer.REG1A"   7.61439,     0.97     19.0373
"Transformer.REG1C"   6.96853,     0.40     17.4226
"Line.JUMPER"         0.00000,      0.0     0

LINE LOSSES=                        62.3 kW
TRANSFORMER LOSSES=                 90.0 kW

TOTAL LOSSES=                      152.4 kW

TOTAL LOAD POWER =                2439.2 kW
Percent Losses for Circuit =      6.25 %
