mtd/3phase_linearization/37Bus_copy/ieee37_Power_elem_kVA.txt

CIRCUIT ELEMENT POWER FLOW

(Power Flow into element from indicated Bus)

Power Delivery Elements

  Bus     Phase     kW     +j   kvar         kVA         PF

ELEMENT = "Vsource.SOURCE"
SOURCEBUS     1      -891.3 +j   -688.9     1126.5       0.7912
SOURCEBUS     2      -705.8 +j   -462.6      843.9       0.8364
SOURCEBUS     3      -994.6 +j   -415.1     1077.7       0.9229
   TERMINAL TOTAL . -2591.7 +j  -1566.5     3028.3       0.8558
SOURCEBUS     0         0.0 +j      0.0        0.0       1.0000
SOURCEBUS     0         0.0 +j      0.0        0.0       1.0000
SOURCEBUS     0         0.0 +j      0.0        0.0       1.0000
   TERMINAL TOTAL .     0.0 +j      0.0        0.0       1.0000

ELEMENT = "Transformer.SUBXF"
SOURCEBUS     1       891.3 +j    688.9     1126.5       0.7912
SOURCEBUS     2       705.8 +j    462.6      843.9       0.8364
SOURCEBUS     3       994.6 +j    415.1     1077.7       0.9229
SOURCEBUS     0         0.0 +j      0.0        0.0       1.0000
   TERMINAL TOTAL .  2591.7 +j   1566.5     3028.3       0.8558
799           1      -860.6 +j   -471.7      981.4       0.8769
799           2      -753.3 +j   -424.9      864.8       0.8710
799           3      -902.4 +j   -368.3      974.6       0.9259
799           0         0.0 +j      0.0        0.0       1.0000
   TERMINAL TOTAL . -2516.3 +j  -1264.8     2816.3       0.8935

ELEMENT = "Transformer.XFM1"
709           1         0.0 +j      0.0        0.0       0.0001
709           2        -0.0 +j      0.0        0.0      -0.0000
709           3        -0.0 +j      0.0        0.0      -0.0000
709           0         0.0 +j      0.0        0.0       1.0000
   TERMINAL TOTAL .     0.0 +j      0.0        0.0       0.0000
775           1        -0.0 +j     -0.0        0.0       0.0778
775           2        -0.0 +j     -0.0        0.0       0.2316
775           3         0.0 +j     -0.0        0.0      -0.0862
775           0         0.0 +j      0.0        0.0       1.0000
   TERMINAL TOTAL .    -0.0 +j     -0.0        0.0       0.0536

ELEMENT = "Line.L1"
701           1       626.0 +j    365.4      724.8       0.8636
701           2       546.6 +j    300.6      623.8       0.8762
701           3       670.7 +j    225.0      707.4       0.9481
   TERMINAL TOTAL .  1843.2 +j    890.9     2047.3       0.9003
702           1      -621.3 +j   -362.1      719.2       0.8640
702           2      -544.0 +j   -298.5      620.5       0.8767
702           3      -666.9 +j   -221.3      702.7       0.9491
   TERMINAL TOTAL . -1832.3 +j   -881.9     2033.5       0.9011

ELEMENT = "Line.L2"
702           1        34.7 +j     44.7       56.6       0.6129
702           2        58.2 +j      0.9       58.2       0.9999
702           3        87.2 +j     39.1       95.6       0.9126
   TERMINAL TOTAL .   180.1 +j     84.7      199.1       0.9049
705           1       -34.6 +j    -44.8       56.6       0.6121
705           2       -58.1 +j     -0.9       58.1       0.9999
705           3       -87.1 +j    -39.1       95.5       0.9124
   TERMINAL TOTAL .  -179.9 +j    -84.7      198.9       0.9047

ELEMENT = "Line.L3"
702           1       128.7 +j     94.6      159.7       0.8057
702           2       196.9 +j     46.5      202.3       0.9732
702           3       212.9 +j    117.4      243.1       0.8758
   TERMINAL TOTAL .   538.5 +j    258.4      597.3       0.9016
713           1      -128.5 +j    -94.5      159.5       0.8055
713           2      -196.6 +j    -46.4      202.0       0.9733
713           3      -212.5 +j   -117.2      242.7       0.8757
   TERMINAL TOTAL .  -537.6 +j   -258.1      596.3       0.9015

ELEMENT = "Line.L4"
702           1       458.0 +j    222.8      509.3       0.8992
702           2       288.9 +j    251.1      382.8       0.7548
702           3       366.7 +j     64.9      372.4       0.9847
   TERMINAL TOTAL .  1113.6 +j    538.8     1237.1       0.9002
703           1      -454.9 +j   -220.6      505.5       0.8998
703           2      -287.6 +j   -250.1      381.2       0.7545
703           3      -365.2 +j    -63.5      370.7       0.9852
   TERMINAL TOTAL . -1107.7 +j   -534.3     1229.8       0.9007

ELEMENT = "Line.L5"
703           1       107.4 +j     39.4      114.4       0.9387
703           2        73.6 +j     67.5       99.9       0.7366
703           3        70.6 +j     18.1       72.9       0.9688
   TERMINAL TOTAL .   251.6 +j    125.0      280.9       0.8955
727           1      -107.2 +j    -39.4      114.3       0.9387
727           2       -73.5 +j    -67.5       99.8       0.7362
727           3       -70.6 +j    -18.1       72.9       0.9688
   TERMINAL TOTAL .  -251.3 +j   -125.0      280.7       0.8953

ELEMENT = "Line.L6"
703           1       347.5 +j    181.1      391.9       0.8867
703           2       214.0 +j    182.6      281.3       0.7608
703           3       294.6 +j     45.5      298.1       0.9883
   TERMINAL TOTAL .   856.1 +j    409.2      948.9       0.9022
730           1      -345.4 +j   -180.2      389.6       0.8866
730           2      -213.1 +j   -182.3      280.4       0.7600
730           3      -293.5 +j    -44.9      296.9       0.9885
   TERMINAL TOTAL .  -852.0 +j   -407.4      944.4       0.9022

ELEMENT = "Line.L7"
704           1        61.5 +j     -6.2       61.8      -0.9949
704           2        50.9 +j     51.8       72.6       0.7009
704           3         7.7 +j     10.8       13.3       0.5779
   TERMINAL TOTAL .   120.1 +j     56.4      132.7       0.9050
714           1       -61.5 +j      6.2       61.8      -0.9949
714           2       -50.9 +j    -51.8       72.6       0.7008
714           3        -7.7 +j    -10.8       13.3       0.5777
   TERMINAL TOTAL .  -120.1 +j    -56.5      132.7       0.9050

ELEMENT = "Line.L8"
704           1        37.1 +j     55.6       66.8       0.5551
704           2       145.3 +j     -5.5      145.4      -0.9993
704           3       149.2 +j    111.3      186.1       0.8015
   TERMINAL TOTAL .   331.5 +j    161.3      368.7       0.8992
720           1       -37.0 +j    -55.6       66.8       0.5539
720           2      -144.9 +j      5.6      145.1      -0.9992
720           3      -148.6 +j   -111.1      185.5       0.8009
   TERMINAL TOTAL .  -330.5 +j   -161.1      367.7       0.8989

ELEMENT = "Line.L9"
705           1         4.9 +j     -0.4        4.9      -0.9968
705           2        58.1 +j      0.9       58.1       0.9999
705           3        31.8 +j     44.2       54.5       0.5835
   TERMINAL TOTAL .    94.8 +j     44.8      104.9       0.9043
742           1        -4.9 +j      0.4        4.9      -0.9972
742           2       -58.1 +j     -0.9       58.1       0.9999
742           3       -31.7 +j    -44.2       54.4       0.5830
   TERMINAL TOTAL .   -94.7 +j    -44.8      104.8       0.9040

ELEMENT = "Line.L10"
705           1        29.7 +j     45.1       54.1       0.5501
705           2         0.0 +j     -0.0        0.0      -0.0000
705           3        55.3 +j     -5.2       55.6      -0.9957
   TERMINAL TOTAL .    85.1 +j     40.0       94.0       0.9051
712           1       -29.7 +j    -45.2       54.1       0.5497
712           2         0.0 +j      0.0        0.0       0.9547
712           3       -55.3 +j      5.2       55.5      -0.9957
   TERMINAL TOTAL .   -85.0 +j    -40.0       94.0       0.9048

ELEMENT = "Line.L11"
706           1        -0.0 +j     -0.0        0.0       0.0000
706           2        27.1 +j     -1.0       27.1      -0.9993
706           3        15.0 +j     22.0       26.6       0.5628
   TERMINAL TOTAL .    42.0 +j     20.9       46.9       0.8950
725           1         0.0 +j     -0.0        0.0      -0.9972
725           2       -27.0 +j      1.0       27.1      -0.9993
725           3       -15.0 +j    -22.0       26.6       0.5623
   TERMINAL TOTAL .   -42.0 +j    -21.0       47.0       0.8944

ELEMENT = "Line.L12"
707           1        -0.0 +j     -0.1        0.1       0.0000
707           2        27.1 +j     -1.1       27.1      -0.9992
707           3        15.0 +j     22.0       26.6       0.5621
   TERMINAL TOTAL .    42.0 +j     20.9       46.9       0.8959
724           1        -0.0 +j      0.0        0.0      -0.9863
724           2       -27.1 +j      1.1       27.1      -0.9992
724           3       -14.9 +j    -22.1       26.6       0.5607
   TERMINAL TOTAL .   -42.0 +j    -21.0       47.0       0.8944

ELEMENT = "Line.L13"
707           1         7.2 +j     10.6       12.8       0.5609
707           2        90.3 +j     -3.5       90.4      -0.9993
707           3        62.9 +j     72.2       95.8       0.6567
   TERMINAL TOTAL .   160.4 +j     79.4      178.9       0.8963
722           1        -7.2 +j    -10.6       12.8       0.5605
722           2       -90.3 +j      3.5       90.3      -0.9993
722           3       -62.8 +j    -72.2       95.7       0.6565
   TERMINAL TOTAL .  -160.3 +j    -79.4      178.9       0.8962

ELEMENT = "Line.L14"
708           1       302.6 +j    115.2      323.8       0.9346
708           2       157.9 +j    185.1      243.3       0.6490
708           3       182.6 +j      7.9      182.7       0.9991
   TERMINAL TOTAL .   643.1 +j    308.2      713.1       0.9018
733           1      -301.8 +j   -114.8      322.9       0.9346
733           2      -157.5 +j   -185.0      243.0       0.6484
733           3      -182.3 +j     -7.8      182.5       0.9991
   TERMINAL TOTAL .  -641.7 +j   -307.6      711.6       0.9018

ELEMENT = "Line.L15"
708           1        14.2 +j     22.9       26.9       0.5265
708           2         0.0 +j     -0.0        0.0      -0.0000
708           3        27.8 +j     -1.9       27.9      -0.9976
   TERMINAL TOTAL .    42.0 +j     20.9       47.0       0.8950
732           1       -14.2 +j    -22.9       26.9       0.5259
732           2         0.0 +j     -0.0        0.0      -0.2672
732           3       -27.8 +j      1.9       27.9      -0.9976
   TERMINAL TOTAL .   -42.0 +j    -21.0       47.0       0.8944

ELEMENT = "Line.L16"
709           1        -0.0 +j     -0.0        0.0       0.0000
709           2        54.5 +j     -3.1       54.6      -0.9984
709           3        31.5 +j     43.5       53.7       0.5867
   TERMINAL TOTAL .    86.0 +j     40.3       94.9       0.9055
731           1         0.0 +j      0.0        0.0       0.1767
731           2       -54.4 +j      3.1       54.5      -0.9984
731           3       -31.4 +j    -43.5       53.7       0.5859
   TERMINAL TOTAL .   -85.9 +j    -40.4       94.9       0.9048

ELEMENT = "Line.L17"
709           1       317.7 +j    138.5      346.5       0.9167
709           2       158.3 +j    185.2      243.7       0.6497
709           3       210.7 +j      6.1      210.8       0.9996
   TERMINAL TOTAL .   686.6 +j    329.8      761.7       0.9014
708           1      -316.8 +j   -138.1      345.6       0.9167
708           2      -157.9 +j   -185.1      243.3       0.6490
708           3      -210.4 +j     -5.9      210.5       0.9996
   TERMINAL TOTAL .  -685.1 +j   -329.1      760.1       0.9014

ELEMENT = "Line.L18"
710           1        29.3 +j     45.1       53.7       0.5445
710           2         0.0 +j     -0.0        0.0      -0.0000
710           3        55.6 +j     -5.2       55.8      -0.9957
   TERMINAL TOTAL .    84.8 +j     39.9       93.7       0.9050
735           1       -29.2 +j    -45.1       53.7       0.5441
735           2         0.0 +j      0.0        0.0       0.1941
735           3       -55.5 +j      5.2       55.8      -0.9957
   TERMINAL TOTAL .   -84.8 +j    -39.9       93.7       0.9048

ELEMENT = "Line.L19"
710           1        -0.0 +j     -0.1        0.1       0.0000
710           2        27.0 +j     -0.9       27.0      -0.9994
710           3        15.1 +j     21.7       26.5       0.5706
   TERMINAL TOTAL .    42.1 +j     20.7       46.9       0.8968
736           1         0.0 +j     -0.0        0.0      -0.9163
736           2       -26.9 +j      0.8       26.9      -0.9995
736           3       -15.1 +j    -21.8       26.5       0.5682
   TERMINAL TOTAL .   -42.0 +j    -21.0       46.9       0.8944

ELEMENT = "Line.L20"
711           1        13.9 +j     22.7       26.6       0.5235
711           2         0.0 +j     -0.0        0.0      -0.0000
711           3        27.7 +j     -1.9       27.8      -0.9976
   TERMINAL TOTAL .    41.7 +j     20.7       46.6       0.8953
741           1       -13.9 +j    -22.7       26.7       0.5229
741           2        -0.0 +j     -0.0        0.0       0.4106
741           3       -27.7 +j      1.9       27.8      -0.9977
   TERMINAL TOTAL .   -41.7 +j    -20.8       46.6       0.8944

ELEMENT = "Line.L21"
711           1        29.0 +j     44.8       53.3       0.5433
711           2         0.0 +j     -0.0        0.0      -0.0000
711           3        55.4 +j     -5.1       55.6      -0.9958
   TERMINAL TOTAL .    84.3 +j     39.6       93.2       0.9050
740           1       -29.0 +j    -44.8       53.3       0.5429
740           2         0.0 +j      0.0        0.0       0.9995
740           3       -55.3 +j      5.1       55.6      -0.9958
   TERMINAL TOTAL .   -84.3 +j    -39.7       93.2       0.9048

ELEMENT = "Line.L22"
713           1        98.8 +j     49.4      110.4       0.8944
713           2       196.6 +j     46.4      202.0       0.9733
713           3       157.2 +j    122.3      199.2       0.7893
   TERMINAL TOTAL .   452.6 +j    218.1      502.4       0.9009
704           1       -98.6 +j    -49.4      110.3       0.8942
704           2      -196.2 +j    -46.3      201.6       0.9733
704           3      -156.8 +j   -122.1      198.8       0.7890
   TERMINAL TOTAL .  -451.6 +j   -217.8      501.4       0.9007

ELEMENT = "Line.L23"
714           1        51.1 +j     -5.1       51.4      -0.9950
714           2        31.0 +j     43.7       53.6       0.5791
714           3         0.0 +j     -0.0        0.0      -0.0000
   TERMINAL TOTAL .    82.2 +j     38.5       90.7       0.9054
718           1       -51.1 +j      5.1       51.3      -0.9951
718           2       -31.0 +j    -43.7       53.6       0.5782
718           3        -0.0 +j     -0.0        0.0       0.8258
   TERMINAL TOTAL .   -82.0 +j    -38.6       90.7       0.9048

ELEMENT = "Line.L24"
720           1         7.2 +j     10.5       12.7       0.5654
720           2       117.9 +j     -4.5      118.0      -0.9993
720           3        78.4 +j     94.3      122.6       0.6393
   TERMINAL TOTAL .   203.5 +j    100.3      226.9       0.8970
707           1        -7.2 +j    -10.6       12.8       0.5627
707           2      -117.4 +j      4.6      117.5      -0.9992
707           3       -77.9 +j    -94.2      122.2       0.6369
   TERMINAL TOTAL .  -202.4 +j   -100.2      225.9       0.8962

ELEMENT = "Line.L25"
720           1        -0.0 +j     -0.1        0.1       0.0000
720           2        27.1 +j     -1.1       27.1      -0.9992
720           3        15.0 +j     21.9       26.6       0.5639
   TERMINAL TOTAL .    42.0 +j     20.8       46.9       0.8963
706           1         0.0 +j      0.0        0.0       0.0000
706           2       -27.1 +j      1.0       27.1      -0.9993
706           3       -15.0 +j    -22.0       26.6       0.5628
   TERMINAL TOTAL .   -42.0 +j    -20.9       46.9       0.8950

ELEMENT = "Line.L26"
727           1        93.0 +j     16.5       94.5       0.9846
727           2        73.5 +j     67.5       99.8       0.7362
727           3        42.8 +j     20.0       47.3       0.9063
   TERMINAL TOTAL .   209.3 +j    104.0      233.7       0.8955
744           1       -92.9 +j    -16.5       94.4       0.9846
744           2       -73.4 +j    -67.5       99.7       0.7359
744           3       -42.8 +j    -20.0       47.3       0.9062
   TERMINAL TOTAL .  -209.2 +j   -104.0      233.6       0.8954

ELEMENT = "Line.L27"
730           1       318.2 +j    138.6      347.1       0.9168
730           2       213.1 +j    182.3      280.4       0.7600
730           3       242.4 +j     49.7      247.4       0.9797
   TERMINAL TOTAL .   773.7 +j    370.5      857.9       0.9019
709           1      -317.7 +j   -138.4      346.5       0.9168
709           2      -212.8 +j   -182.1      280.1       0.7597
709           3      -242.2 +j    -49.5      247.2       0.9797
   TERMINAL TOTAL .  -772.6 +j   -370.1      856.7       0.9019

ELEMENT = "Line.L28"
733           1       251.1 +j    120.8      278.6       0.9012
733           2       125.9 +j    141.5      189.4       0.6648
733           3       182.3 +j      7.8      182.5       0.9991
   TERMINAL TOTAL .   559.3 +j    270.0      621.1       0.9006
734           1      -250.1 +j   -120.3      277.5       0.9011
734           2      -125.5 +j   -141.3      189.0       0.6639
734           3      -182.0 +j     -7.6      182.1       0.9991
   TERMINAL TOTAL .  -557.5 +j   -269.3      619.1       0.9005

ELEMENT = "Line.L29"
734           1       206.6 +j     52.4      213.2       0.9693
734           2        98.5 +j    142.3      173.1       0.5692
734           3        83.3 +j     -7.0       83.6      -0.9964
   TERMINAL TOTAL .   388.4 +j    187.7      431.4       0.9004
737           1      -206.0 +j    -52.2      212.5       0.9694
737           2       -98.1 +j   -142.2      172.8       0.5680
737           3       -83.2 +j      7.0       83.5      -0.9964
   TERMINAL TOTAL .  -387.3 +j   -187.3      430.2       0.9002

ELEMENT = "Line.L30"
734           1        29.3 +j     45.0       53.7       0.5462
734           2        27.0 +j     -0.9       27.0      -0.9994
734           3        70.8 +j     16.5       72.7       0.9738
   TERMINAL TOTAL .   127.1 +j     60.6      140.8       0.9027
710           1       -29.3 +j    -45.0       53.7       0.5452
710           2       -27.0 +j      0.9       27.0      -0.9994
710           3       -70.7 +j    -16.5       72.6       0.9737
   TERMINAL TOTAL .  -126.9 +j    -60.6      140.6       0.9023

ELEMENT = "Line.L31"
737           1       122.0 +j     60.4      136.1       0.8961
737           2        47.2 +j     69.0       83.6       0.5649
737           3        83.2 +j     -7.0       83.5      -0.9964
   TERMINAL TOTAL .   252.4 +j    122.4      280.5       0.8998
738           1      -121.8 +j    -60.4      136.0       0.8960
738           2       -47.2 +j    -69.0       83.6       0.5644
738           3       -83.2 +j      7.0       83.5      -0.9964
   TERMINAL TOTAL .  -252.1 +j   -122.3      280.3       0.8997

ELEMENT = "Line.L32"
738           1        43.0 +j     67.5       80.0       0.5373
738           2         0.0 +j     -0.1        0.1      -0.0000
738           3        83.2 +j     -7.0       83.5      -0.9964
   TERMINAL TOTAL .   126.1 +j     60.3      139.8       0.9021
711           1       -42.9 +j    -67.5       80.0       0.5368
711           2        -0.0 +j      0.1        0.1      -0.0000
711           3       -83.1 +j      7.0       83.4      -0.9964
   TERMINAL TOTAL .  -126.0 +j    -60.4      139.7       0.9018

ELEMENT = "Line.L33"
744           1        40.7 +j     20.8       45.7       0.8903
744           2        42.5 +j     22.1       47.9       0.8869
744           3        42.8 +j     20.0       47.3       0.9060
   TERMINAL TOTAL .   126.1 +j     63.0      140.9       0.8946
728           1       -40.7 +j    -20.8       45.7       0.8902
728           2       -42.5 +j    -22.2       47.9       0.8867
728           3       -42.8 +j    -20.0       47.2       0.9059
   TERMINAL TOTAL .  -126.0 +j    -63.0      140.9       0.8944

ELEMENT = "Line.L34"
744           1        25.8 +j     -2.3       25.9      -0.9962
744           2        15.3 +j     22.3       27.1       0.5663
744           3         0.0 +j     -0.0        0.0      -0.0000
   TERMINAL TOTAL .    41.1 +j     20.0       45.7       0.8988
729           1       -25.8 +j      2.2       25.9      -0.9962
729           2       -15.3 +j    -22.3       27.1       0.5658
729           3         0.0 +j      0.0        0.0       0.5665
   TERMINAL TOTAL .   -41.1 +j    -20.1       45.7       0.8983

ELEMENT = "Line.L35"
799R          1       845.9 +j    557.3     1013.0       0.8351
799R          2       693.5 +j    378.6      790.1       0.8777
799R          3       962.3 +j    292.4     1005.7       0.9568
   TERMINAL TOTAL .  2501.7 +j   1228.4     2787.0       0.8976
701           1      -833.9 +j   -549.3      998.6       0.8351
701           2      -688.1 +j   -373.9      783.1       0.8787
701           3      -951.2 +j   -282.8      992.4       0.9585
   TERMINAL TOTAL . -2473.3 +j  -1206.0     2751.6       0.8988

ELEMENT = "Transformer.REG1A"
799           1       860.6 +j    471.7      981.4       0.8769
799           2       -78.2 +j   1151.8     1154.5      -0.0677
   TERMINAL TOTAL .   782.5 +j   1623.5     1802.2       0.4342
799R          1      -845.9 +j   -557.3     1013.0       0.8351
799R          2        71.1 +j  -1047.1     1049.5      -0.0677
   TERMINAL TOTAL .  -774.9 +j  -1604.4     1781.7       0.4349

ELEMENT = "Transformer.REG1C"
799           3       902.4 +j    368.3      974.6       0.9259
799           2       831.4 +j   -726.9     1104.4      -0.7528
   TERMINAL TOTAL .  1733.8 +j   -358.6     1770.5      -0.9793
799R          3      -962.3 +j   -292.4     1005.7       0.9568
799R          2      -764.5 +j    668.5     1015.6      -0.7528
   TERMINAL TOTAL . -1726.8 +j    376.1     1767.3      -0.9771

ELEMENT = "Line.JUMPER"
799           2         0.0 +j     -0.0        0.0      -0.0219
   TERMINAL TOTAL .     0.0 +j     -0.0        0.0      -0.0219
799R          2        -0.0 +j      0.0        0.0      -0.0219
   TERMINAL TOTAL .    -0.0 +j      0.0        0.0      -0.0219

= = = = = = = = = = = = = = = = = = =  = = = = = = = = = = =  = =

Power Conversion Elements

  Bus     Phase     kW   +j  kvar         kVA         PF

ELEMENT = "Load.S701A"
701           1      88.4 +j   -6.7       88.7      -0.9972
701           2      51.6 +j   76.7       92.4       0.5581
  TERMINAL TOTAL  .   140.0 +j     70.0      156.5       0.8944

ELEMENT = "Load.S701B"
701           2      90.0 +j   -3.3       90.0      -0.9993
701           3      50.0 +j   73.4       88.8       0.5634
  TERMINAL TOTAL  .   140.0 +j     70.0      156.5       0.8944

ELEMENT = "Load.S701C"
701           3     230.5 +j  -15.6      231.0      -0.9977
701           1     119.5 +j  190.6      224.9       0.5312
  TERMINAL TOTAL  .   350.0 +j    175.0      391.3       0.8944

ELEMENT = "Load.S712C"
712           3      55.3 +j   -5.1       55.5      -0.9957
712           1      29.7 +j   45.2       54.1       0.5496
  TERMINAL TOTAL  .    85.0 +j     40.0       93.9       0.9048

ELEMENT = "Load.S713C"
713           3      55.3 +j   -5.1       55.5      -0.9957
713           1      29.7 +j   45.1       54.0       0.5499
  TERMINAL TOTAL  .    85.0 +j     40.0       93.9       0.9048

ELEMENT = "Load.S714A"
714           1      10.4 +j   -1.1       10.4      -0.9945
714           2       6.4 +j    8.8       10.9       0.5837
  TERMINAL TOTAL  .    16.7 +j      7.7       18.4       0.9075

ELEMENT = "Load.S714B"
714           2      13.5 +j   -0.7       13.5      -0.9987
714           3       7.7 +j   10.9       13.3       0.5763
  TERMINAL TOTAL  .    21.2 +j     10.2       23.5       0.9013

ELEMENT = "Load.S718A"
718           1      51.1 +j   -5.1       51.3      -0.9951
718           2      31.0 +j   43.7       53.6       0.5782
  TERMINAL TOTAL  .    82.0 +j     38.6       90.7       0.9048

ELEMENT = "Load.S720C"
720           3      55.2 +j   -5.2       55.5      -0.9957
720           1      29.8 +j   45.2       54.1       0.5506
  TERMINAL TOTAL  .    85.0 +j     40.0       93.9       0.9048

ELEMENT = "Load.S722B"
722           2      90.3 +j   -3.5       90.3      -0.9993
722           3      49.8 +j   73.6       88.8       0.5606
  TERMINAL TOTAL  .   140.1 +j     70.1      156.6       0.8943

ELEMENT = "Load.S722C"
722           3      13.0 +j   -1.3       13.1      -0.9947
722           1       7.2 +j   10.6       12.8       0.5605
  TERMINAL TOTAL  .    20.2 +j      9.3       22.3       0.9088

ELEMENT = "Load.S724B"
724           2      27.1 +j   -1.1       27.1      -0.9992
724           3      14.9 +j   22.1       26.6       0.5606
  TERMINAL TOTAL  .    42.0 +j     21.0       47.0       0.8944

ELEMENT = "Load.S725B"
725           2      27.0 +j   -1.0       27.1      -0.9993
725           3      15.0 +j   22.0       26.6       0.5622
  TERMINAL TOTAL  .    42.0 +j     21.0       47.0       0.8944

ELEMENT = "Load.S727C"
727           3      27.8 +j   -1.9       27.8      -0.9977
727           1      14.2 +j   22.9       27.0       0.5281
  TERMINAL TOTAL  .    42.0 +j     21.0       47.0       0.8944

ELEMENT = "Load.S728"
728           1      40.7 +j   20.8       45.7       0.8902
728           2      42.5 +j   22.2       47.9       0.8867
728           3      42.8 +j   20.0       47.2       0.9058
  TERMINAL TOTAL  .   126.0 +j     63.0      140.9       0.8944

ELEMENT = "Load.S729A"
729           1      25.8 +j   -2.2       25.9      -0.9962
729           2      15.3 +j   22.3       27.1       0.5658
  TERMINAL TOTAL  .    41.1 +j     20.1       45.7       0.8983

ELEMENT = "Load.S730C"
730           3      51.1 +j   -4.7       51.3      -0.9957
730           1      27.2 +j   41.6       49.7       0.5471
  TERMINAL TOTAL  .    78.3 +j     36.8       86.5       0.9048

ELEMENT = "Load.S731B"
731           2      54.4 +j   -3.1       54.5      -0.9984
731           3      31.4 +j   43.5       53.7       0.5859
  TERMINAL TOTAL  .    85.9 +j     40.4       94.9       0.9048

ELEMENT = "Load.S732C"
732           3      27.8 +j   -1.9       27.9      -0.9976
732           1      14.2 +j   22.9       26.9       0.5259
  TERMINAL TOTAL  .    42.0 +j     21.0       47.0       0.8944

ELEMENT = "Load.S733A"
733           1      50.8 +j   -5.9       51.1      -0.9933
733           2      31.7 +j   43.5       53.8       0.5881
  TERMINAL TOTAL  .    82.4 +j     37.6       90.6       0.9098

ELEMENT = "Load.S734C"
734           3      27.9 +j   -1.9       28.0      -0.9977
734           1      14.1 +j   22.9       26.9       0.5244
  TERMINAL TOTAL  .    42.0 +j     21.0       47.0       0.8944

ELEMENT = "Load.S735C"
735           3      55.5 +j   -5.2       55.8      -0.9957
735           1      29.2 +j   45.1       53.7       0.5441
  TERMINAL TOTAL  .    84.8 +j     39.9       93.7       0.9048

ELEMENT = "Load.S736B"
736           2      26.9 +j   -0.8       26.9      -0.9995
736           3      15.1 +j   21.8       26.5       0.5682
  TERMINAL TOTAL  .    42.0 +j     21.0       46.9       0.8944

ELEMENT = "Load.S737A"
737           1      84.0 +j   -8.2       84.4      -0.9952
737           2      50.9 +j   73.2       89.1       0.5708
  TERMINAL TOTAL  .   134.9 +j     64.9      149.7       0.9010

ELEMENT = "Load.S738A"
738           1      78.8 +j   -7.1       79.1      -0.9960
738           2      47.2 +j   69.1       83.7       0.5639
  TERMINAL TOTAL  .   126.0 +j     62.0      140.4       0.8973

ELEMENT = "Load.S740C"
740           3      55.3 +j   -5.1       55.6      -0.9958
740           1      28.9 +j   44.8       53.3       0.5429
  TERMINAL TOTAL  .    84.3 +j     39.7       93.1       0.9048

ELEMENT = "Load.S741C"
741           3      27.7 +j   -1.9       27.8      -0.9977
741           1      13.9 +j   22.7       26.7       0.5228
  TERMINAL TOTAL  .    41.7 +j     20.8       46.6       0.8944

ELEMENT = "Load.S742A"
742           1       4.9 +j   -0.4        4.9      -0.9972
742           2       2.9 +j    4.3        5.1       0.5591
  TERMINAL TOTAL  .     7.8 +j      3.9        8.7       0.8944

ELEMENT = "Load.S742B"
742           2      55.2 +j   -3.3       55.3      -0.9982
742           3      31.7 +j   44.2       54.4       0.5829
  TERMINAL TOTAL  .    87.0 +j     40.9       96.1       0.9048

ELEMENT = "Load.S744A"
744           1      26.5 +j   -2.1       26.5      -0.9970
744           2      15.5 +j   23.1       27.8       0.5587
  TERMINAL TOTAL  .    42.0 +j     21.0       47.0       0.8944


Total Circuit Losses =  152.4 +j  378.5
