mtd/3phase_linearization/37Bus_copy/ieee37_VLN_Node.Txt

LINE-GROUND and LINE-LINE VOLTAGES BY BUS & NODE

Bus       Node    VLN (kV)   Angle      pu     Base kV    Node-Node   VLL (kV)  Angle      pu

SOURCEBUS 1       132.79 /_    0.0   0.99999   230.000        1-2        230 /_   30.0   0.99999
   -      2       132.79 /_ -120.0   0.99999   230.000        2-3        230 /_  -90.0   0.99999
   -      3       132.79 /_  120.0   0.99999   230.000        3-1        230 /_  150.0   0.99999
799 ..... 1       2.4139 /_   -9.0   0.87103     4.800        1-2     4.4328 /_   26.6   0.92351
   -      2       2.8395 /_ -123.8    1.0246     4.800        2-3      4.552 /_  -94.3   0.94833
   -      3       2.5056 /_  119.6   0.90414     4.800        3-1     4.4314 /_  144.8   0.92322
709 ..... 1       2.6327 /_   -4.7      0.95     4.800        1-2     4.6638 /_   26.5   0.97163
   -      2       2.7683 /_ -124.1   0.99893     4.800        2-3     4.8234 /_  -95.7    1.0049
   -      3       2.7266 /_  113.2   0.98389     4.800        3-1     4.5904 /_  143.6   0.95633
775 ..... 1      0.26327 /_   -4.7      0.95     0.480        1-2    0.46638 /_   26.5   0.97163
   -      2      0.27681 /_ -124.1   0.99885     0.480        2-3    0.48234 /_  -95.7    1.0049
   -      3      0.27269 /_  113.2   0.98397     0.480        3-1    0.45904 /_  143.6   0.95633
701 ..... 1       2.6982 /_   -4.4   0.97363     4.800        1-2     4.7627 /_   26.5   0.99224
   -      2        2.812 /_ -124.0    1.0147     4.800        2-3     4.8891 /_  -95.3    1.0186
   -      3       2.7727 /_  113.8    1.0005     4.800        3-1     4.6946 /_  144.2   0.97805
702 ..... 1       2.6753 /_   -4.5   0.96538     4.800        1-2     4.7294 /_   26.4   0.98529
   -      2       2.7961 /_ -124.1     1.009     4.800        2-3     4.8615 /_  -95.5    1.0128
   -      3       2.7532 /_  113.5   0.99346     4.800        3-1     4.6546 /_  144.0   0.96971
705 ..... 1        2.673 /_   -4.5   0.96453     4.800        1-2     4.7263 /_   26.4   0.98465
   -      2       2.7936 /_ -124.1    1.0081     4.800        2-3      4.855 /_  -95.5    1.0115
   -      3       2.7488 /_  113.5    0.9919     4.800        3-1     4.6482 /_  144.1   0.96838
713 ..... 1       2.6712 /_   -4.5    0.9639     4.800        1-2     4.7229 /_   26.4   0.98394
   -      2       2.7917 /_ -124.1    1.0074     4.800        2-3     4.8524 /_  -95.6    1.0109
   -      3       2.7476 /_  113.5   0.99145     4.800        3-1     4.6458 /_  144.0   0.96787
703 ..... 1       2.6538 /_   -4.7   0.95763     4.800        1-2     4.6959 /_   26.4   0.97831
   -      2        2.782 /_ -124.1    1.0039     4.800        2-3     4.8425 /_  -95.7    1.0089
   -      3       2.7401 /_  113.3   0.98876     4.800        3-1     4.6228 /_  143.8   0.96308
727 ..... 1       2.6505 /_   -4.7   0.95643     4.800        1-2     4.6904 /_   26.4   0.97718
   -      2       2.7796 /_ -124.1     1.003     4.800        2-3     4.8394 /_  -95.6    1.0082
   -      3       2.7382 /_  113.3   0.98805     4.800        3-1     4.6181 /_  143.8   0.96209
730 ..... 1       2.6375 /_   -4.7   0.95174     4.800        1-2     4.6716 /_   26.4   0.97324
   -      2       2.7717 /_ -124.1    1.0002     4.800        2-3      4.828 /_  -95.7    1.0058
   -      3       2.7296 /_  113.2   0.98496     4.800        3-1     4.5974 /_  143.7    0.9578
704 ..... 1       2.6671 /_   -4.5    0.9624     4.800        1-2     4.7146 /_   26.4   0.98222
   -      2       2.7854 /_ -124.2    1.0051     4.800        2-3     4.8401 /_  -95.6    1.0084
   -      3       2.7411 /_  113.5    0.9891     4.800        3-1     4.6369 /_  144.1   0.96603
714 ..... 1       2.6666 /_   -4.5   0.96221     4.800        1-2     4.7134 /_   26.4   0.98196
   -      2       2.7848 /_ -124.2    1.0049     4.800        2-3     4.8396 /_  -95.6    1.0083
   -      3        2.741 /_  113.5   0.98907     4.800        3-1     4.6366 /_  144.0   0.96595
720 ..... 1       2.6634 /_   -4.5   0.96107     4.800        1-2     4.7087 /_   26.4   0.98099
   -      2       2.7791 /_ -124.2    1.0028     4.800        2-3      4.824 /_  -95.6     1.005
   -      3       2.7315 /_  113.6   0.98565     4.800        3-1      4.625 /_  144.1   0.96354
742 ..... 1       2.6728 /_   -4.5   0.96445     4.800        1-2     4.7247 /_   26.4    0.9843
   -      2       2.7916 /_ -124.1    1.0073     4.800        2-3      4.851 /_  -95.5    1.0106
   -      3       2.7472 /_  113.6   0.99132     4.800        3-1     4.6473 /_  144.1   0.96818
712 ..... 1       2.6717 /_   -4.5   0.96408     4.800        1-2     4.7257 /_   26.4   0.98453
   -      2       2.7936 /_ -124.1    1.0081     4.800        2-3     4.8541 /_  -95.6    1.0113
   -      3       2.7474 /_  113.5   0.99138     4.800        3-1     4.6451 /_  144.1   0.96773
706 ..... 1       2.6633 /_   -4.5   0.96105     4.800        1-2     4.7082 /_   26.3   0.98087
   -      2       2.7782 /_ -124.3    1.0025     4.800        2-3      4.822 /_  -95.6    1.0046
   -      3       2.7306 /_  113.6   0.98531     4.800        3-1     4.6244 /_  144.1   0.96341
725 ..... 1       2.6633 /_   -4.5   0.96104     4.800        1-2     4.7076 /_   26.3   0.98075
   -      2       2.7774 /_ -124.3    1.0022     4.800        2-3     4.8203 /_  -95.6    1.0042
   -      3       2.7299 /_  113.6   0.98507     4.800        3-1      4.624 /_  144.1   0.96334
707 ..... 1       2.6619 /_   -4.4   0.96054     4.800        1-2     4.6999 /_   26.3   0.97915
   -      2       2.7675 /_ -124.3   0.99864     4.800        2-3     4.7991 /_  -95.6   0.99982
   -      3       2.7206 /_  113.7   0.98172     4.800        3-1     4.6173 /_  144.3   0.96193
724 ..... 1       2.6619 /_   -4.4   0.96052     4.800        1-2     4.6984 /_   26.2   0.97883
   -      2       2.7653 /_ -124.3   0.99784     4.800        2-3     4.7946 /_  -95.6   0.99887
   -      3       2.7188 /_  113.7   0.98106     4.800        3-1     4.6163 /_  144.3   0.96174
722 ..... 1       2.6618 /_   -4.4   0.96048     4.800        1-2      4.699 /_   26.3   0.97897
   -      2       2.7663 /_ -124.3   0.99822     4.800        2-3     4.7966 /_  -95.6    0.9993
   -      3       2.7195 /_  113.7   0.98131     4.800        3-1     4.6164 /_  144.3   0.96175
708 ..... 1       2.6251 /_   -4.7   0.94725     4.800        1-2      4.652 /_   26.5   0.96917
   -      2       2.7638 /_ -124.0   0.99729     4.800        2-3     4.8183 /_  -95.7    1.0038
   -      3       2.7229 /_  113.1   0.98255     4.800        3-1     4.5798 /_  143.6   0.95413
733 ..... 1        2.618 /_   -4.7   0.94469     4.800        1-2     4.6405 /_   26.5   0.96678
   -      2       2.7592 /_ -124.0   0.99566     4.800        2-3     4.8134 /_  -95.7    1.0028
   -      3       2.7197 /_  113.1   0.98139     4.800        3-1     4.5704 /_  143.5   0.95218
732 ..... 1       2.6243 /_   -4.7   0.94695     4.800        1-2     4.6517 /_   26.5    0.9691
   -      2       2.7638 /_ -124.0   0.99729     4.800        2-3     4.8176 /_  -95.7    1.0037
   -      3        2.722 /_  113.1    0.9822     4.800        3-1     4.5777 /_  143.6   0.95369
731 ..... 1       2.6326 /_   -4.7   0.94997     4.800        1-2     4.6628 /_   26.4   0.97141
   -      2       2.7665 /_ -124.1   0.99829     4.800        2-3     4.8193 /_  -95.7     1.004
   -      3       2.7247 /_  113.2   0.98321     4.800        3-1      4.589 /_  143.7   0.95605
710 ..... 1       2.6044 /_   -4.7   0.93977     4.800        1-2      4.622 /_   26.6   0.96291
   -      2       2.7515 /_ -124.0   0.99287     4.800        2-3     4.8006 /_  -95.7    1.0001
   -      3       2.7096 /_  113.0   0.97775     4.800        3-1     4.5473 /_  143.5   0.94735
735 ..... 1       2.6033 /_   -4.7   0.93939     4.800        1-2     4.6215 /_   26.6   0.96281
   -      2       2.7515 /_ -124.0   0.99287     4.800        2-3     4.7998 /_  -95.7   0.99997
   -      3       2.7084 /_  113.0   0.97731     4.800        3-1     4.5447 /_  143.5    0.9468
736 ..... 1       2.6043 /_   -4.7   0.93973     4.800        1-2     4.6193 /_   26.6   0.96235
   -      2       2.7478 /_ -124.0   0.99152     4.800        2-3     4.7929 /_  -95.7   0.99852
   -      3       2.7065 /_  113.0   0.97663     4.800        3-1     4.5457 /_  143.5   0.94702
711 ..... 1       2.5922 /_   -4.8   0.93536     4.800        1-2     4.6015 /_   26.6   0.95864
   -      2        2.745 /_ -123.9   0.99051     4.800        2-3     4.7979 /_  -95.7   0.99957
   -      3       2.7078 /_  112.9    0.9771     4.800        3-1     4.5349 /_  143.3   0.94478
741 ..... 1       2.5915 /_   -4.8   0.93512     4.800        1-2     4.6011 /_   26.7   0.95856
   -      2        2.745 /_ -123.9   0.99051     4.800        2-3     4.7976 /_  -95.7    0.9995
   -      3       2.7072 /_  112.9   0.97688     4.800        3-1     4.5334 /_  143.3   0.94446
740 ..... 1       2.5911 /_   -4.8   0.93499     4.800        1-2      4.601 /_   26.7   0.95855
   -      2        2.745 /_ -123.9   0.99051     4.800        2-3     4.7971 /_  -95.7   0.99941
   -      3       2.7066 /_  112.9   0.97667     4.800        3-1     4.5323 /_  143.3   0.94423
718 ..... 1       2.6637 /_   -4.5   0.96118     4.800        1-2     4.7072 /_   26.4   0.98067
   -      2       2.7824 /_ -124.1     1.004     4.800        2-3     4.8385 /_  -95.5     1.008
   -      3       2.7411 /_  113.5    0.9891     4.800        3-1     4.6348 /_  144.0   0.96558
744 ..... 1       2.6488 /_   -4.7   0.95581     4.800        1-2      4.687 /_   26.4   0.97646
   -      2       2.7779 /_ -124.1    1.0024     4.800        2-3     4.8375 /_  -95.6    1.0078
   -      3       2.7374 /_  113.3   0.98776     4.800        3-1     4.6161 /_  143.7   0.96169
734 ..... 1       2.6071 /_   -4.7   0.94076     4.800        1-2     4.6243 /_   26.6   0.96339
   -      2        2.753 /_ -124.0   0.99341     4.800        2-3     4.8058 /_  -95.7    1.0012
   -      3        2.714 /_  113.0   0.97933     4.800        3-1     4.5548 /_  143.4   0.94891
737 ..... 1        2.598 /_   -4.8   0.93749     4.800        1-2     4.6082 /_   26.6   0.96005
   -      2       2.7469 /_ -123.9   0.99119     4.800        2-3     4.8009 /_  -95.7    1.0002
   -      3       2.7114 /_  112.9   0.97839     4.800        3-1     4.5448 /_  143.3   0.94684
738 ..... 1       2.5942 /_   -4.8   0.93611     4.800        1-2     4.6027 /_   26.6    0.9589
   -      2        2.745 /_ -123.9   0.99051     4.800        2-3     4.7989 /_  -95.7   0.99977
   -      3       2.7097 /_  112.9   0.97776     4.800        3-1     4.5395 /_  143.3   0.94572
728 ..... 1       2.6477 /_   -4.7   0.95542     4.800        1-2     4.6851 /_   26.4   0.97607
   -      2       2.7768 /_ -124.1     1.002     4.800        2-3     4.8357 /_  -95.6    1.0074
   -      3       2.7363 /_  113.3   0.98738     4.800        3-1     4.6142 /_  143.8   0.96129
729 ..... 1        2.648 /_   -4.7   0.95553     4.800        1-2     4.6853 /_   26.4   0.97611
   -      2       2.7772 /_ -124.1    1.0021     4.800        2-3     4.8372 /_  -95.6    1.0078
   -      3       2.7374 /_  113.3   0.98777     4.800        3-1     4.6156 /_  143.7   0.96159
799R .... 1       2.7407 /_   -4.3   0.98896     4.800        1-2     4.8208 /_   26.5    1.0043
   -      2       2.8395 /_ -123.8    1.0246     4.800        2-3     4.9412 /_  -94.9    1.0294
   -      3       2.8117 /_  114.3    1.0146     4.800        3-1     4.7734 /_  144.5   0.99445
